Version 4
SHEET 1 880 680
WIRE 512 16 288 16
WIRE 512 32 512 16
WIRE 112 80 0 80
WIRE 176 80 112 80
WIRE 0 112 0 80
WIRE 176 128 176 80
WIRE 240 128 176 128
WIRE 288 128 288 16
WIRE 304 128 288 128
WIRE 176 144 176 128
WIRE 400 144 368 144
WIRE 512 144 512 112
WIRE 512 144 480 144
WIRE 512 160 512 144
WIRE 240 192 240 128
WIRE 304 192 240 192
WIRE 0 224 0 192
WIRE 176 224 176 208
WIRE 240 224 176 224
WIRE 304 224 240 224
WIRE 240 256 240 224
WIRE 80 304 0 304
WIRE 176 304 160 304
WIRE 0 320 0 304
WIRE 240 384 240 352
WIRE 0 416 0 400
FLAG 240 384 0
FLAG 0 224 0
FLAG 112 80 E
FLAG 0 416 0
FLAG 512 160 0
FLAG 240 224 VCE
FLAG 0 304 EB
SYMBOL rly_spdt0 336 144 R0
WINDOW 0 -16 -80 Left 2
WINDOW 38 8 127 Center 2
SYMATTR InstName U1
SYMATTR Value VNOM=12  RCOIL=275  VON=0.8  VOFF=0.4
SYMATTR SpiceLine2 TON=1m TOFF=1m  LCOIL=100m CCOIL=1f
SYMBOL res 496 128 R90
WINDOW 0 0 56 VBottom 2
WINDOW 3 32 56 VTop 2
SYMATTR InstName R1
SYMATTR Value 1k
SYMBOL npn 176 256 R0
WINDOW 0 56 32 Left 2
WINDOW 3 56 68 Left 2
SYMATTR InstName Q1
SYMATTR Value 2N2222
SYMBOL voltage 0 96 R0
WINDOW 123 0 0 Left 0
WINDOW 39 0 0 Left 0
SYMATTR InstName V1
SYMATTR Value 12V
SYMBOL res 176 288 R90
WINDOW 0 0 56 VBottom 2
WINDOW 3 32 56 VTop 2
SYMATTR InstName RB
SYMATTR Value 3.8k
SYMBOL voltage 0 304 R0
WINDOW 123 0 0 Left 0
WINDOW 39 0 0 Left 0
SYMATTR InstName V2
SYMATTR Value PULSE(0 5 0 1p 1p 50m 100m)
SYMBOL voltage 512 16 R0
WINDOW 123 0 0 Left 0
WINDOW 39 0 0 Left 0
SYMATTR InstName V3
SYMATTR Value 24V
SYMBOL diode 192 208 R180
WINDOW 0 24 72 Left 2
WINDOW 3 24 0 Left 2
SYMATTR InstName D1
SYMATTR Value 1N4148
TEXT 48 8 Left 2 !.tran 500m
TEXT 48 40 Left 2 !.include relay.lib
